 B8
 01
 00
 00
 00
 0F
 22
 C0
 EA
 20
 FC
 0F
 00
 00
 00
 00
 00
 00
 00
 00
 00
 00
 00
 00
 00
 00
 00
 00
 00
 00
 00
 00
 BC
 00
 10
 00
 00
 E8
 B8
 01
 00
 00
 E8
 EF
 01
 00
 00
 B0
 06
 BA
 00
 05
 00
 00
 EE
 B0
 02
 BA
 00
 05
 00
 00
 EE
 B3
 03
 E8
 B4
 00
 00
 00
 B3
 3F
 E8
 AD
 00
 00
 00
 B3
 FF
 E8
 A6
 00
 00
 00
 B3
 F0
 E8
 9F
 00
 00
 00
 BF
 F0
 FF
 0F
 00
 BE
 00
 80
 0C
 00
 E8
 4A
 00
 00
 00
 E8
 AF
 01
 00
 00
 B0
 06
 BA
 00
 05
 00
 00
 EE
 B0
 02
 BA
 00
 05
 00
 00
 EE
 B3
 03
 E8
 74
 00
 00
 00
 B3
 7F
 E8
 6D
 00
 00
 00
 B3
 FF
 E8
 66
 00
 00
 00
 B3
 F0
 E8
 5F
 00
 00
 00
 BF
 F0
 FF
 4F
 00
 BE
 00
 00
 0C
 00
 E8
 0A
 00
 00
 00
 E8
 6F
 01
 00
 00
 E9
 95
 00
 00
 00
 E8
 7B
 00
 00
 00
 89
 D8
 C1
 C0
 08
 88
 07
 47
 C1
 C0
 08
 88
 07
 47
 C1
 C0
 08
 88
 07
 47
 C1
 C0
 08
 88
 07
 8A
 1F
 38
 C3
 74
 1D
 FF
 35
 00
 00
 00
 00
 FF
 35
 00
 00
 00
 00
 E8
 35
 01
 00
 00
 8F
 05
 00
 00
 00
 00
 8F
 05
 00
 00
 00
 00
 47
 4E
 75
 BB
 C3
 66
 BA
 00
 05
 B1
 08
 D0
 C3
 88
 D8
 24
 01
 EE
 0C
 02
 EE
 34
 02
 EE
 D0
 C3
 FE
 C9
 75
 EF
 C3
 B0
 06
 BA
 00
 05
 00
 00
 EE
 B0
 02
 BA
 00
 05
 00
 00
 EE
 B3
 F0
 E8
 00
 00
 00
 00
 B0
 06
 BA
 00
 05
 00
 00
 EE
 C3
 66
 BA
 04
 05
 B0
 20
 EE
 B9
 1E
 00
 00
 00
 49
 75
 FD
 ED
 ED
 ED
 89
 C3
 C3
 BC
 00
 10
 00
 00
 E8
 8F
 00
 00
 00
 BB
 00
 FF
 0F
 00
 B9
 0E
 04
 00
 00
 89
 19
 BF
 00
 00
 09
 00
 B9
 00
 04
 00
 00
 B8
 00
 00
 00
 00
 F3
 AB
 BF
 00
 08
 09
 00
 89
 3D
 28
 02
 09
 00
 BE
 20
 FF
 0F
 00
 B9
 00
 01
 00
 00
 F3
 A4
 B0
 01
 A3
 10
 02
 09
 00
 B8
 00
 FC
 01
 00
 A3
 E0
 01
 09
 00
 B8
 00
 00
 50
 00
 A3
 18
 02
 09
 00
 B8
 00
 00
 30
 00
 A3
 1C
 02
 09
 00
 B0
 50
 A2
 07
 00
 09
 00
 B0
 19
 A2
 0E
 00
 09
 00
 E8
 5F
 00
 00
 00
 BE
 00
 00
 09
 00
 EA
 00
 00
 10
 00
 10
 00
 50
 52
 BA
 FD
 03
 00
 00
 EC
 24
 20
 74
 F6
 BA
 F8
 03
 00
 00
 88
 D8
 EE
 5A
 58
 C3
 BA
 FB
 03
 00
 00
 B0
 83
 EE
 BA
 F8
 03
 00
 00
 B0
 01
 EE
 BA
 F9
 03
 00
 00
 B0
 00
 EE
 BA
 FB
 03
 00
 00
 B0
 03
 EE
 BA
 FA
 03
 00
 00
 B0
 07
 EE
 B0
 00
 BA
 F9
 03
 00
 00
 EE
 BA
 FC
 03
 00
 00
 EE
 BA
 F8
 03
 00
 00
 C3
 BE
 B0
 FF
 0F
 00
 8A
 1E
 B0
 00
 38
 C3
 74
 08
 46
 E8
 9A
 FF
 FF
 FF
 EB
 F0
 C3
 EB
 FE
 00
 00
 00
 00
 00
 00
 00
 00
 00
 00
 00
 00
 00
 00
 00
 00
 00
 00
 00
 00
 00
 00
 00
 00
 00
 00
 00
 00
 00
 00
 00
 00
 00
 00
 00
 00
 00
 00
 00
 00
 00
 00
 00
 00
 00
 00
 00
 00
 00
 00
 00
 00
 00
 00
 00
 00
 00
 00
 00
 00
 00
 00
 00
 00
 00
 00
 00
 00
 00
 00
 00
 00
 00
 00
 00
 00
 00
 00
 00
 00
 00
 00
 00
 00
 00
 00
 00
 00
 00
 00
 00
 00
 00
 00
 00
 00
 00
 00
 00
 00
 00
 00
 00
 00
 00
 00
 00
 00
 00
 00
 00
 00
 00
 00
 00
 00
 00
 00
 00
 00
 00
 00
 00
 00
 00
 00
 00
 00
 00
 00
 00
 00
 00
 00
 00
 00
 00
 00
 00
 00
 00
 00
 00
 00
 00
 00
 00
 00
 00
 00
 00
 00
 00
 00
 00
 00
 00
 00
 00
 00
 00
 00
 00
 00
 00
 00
 00
 00
 00
 00
 00
 00
 00
 00
 00
 00
 00
 00
 00
 00
 00
 00
 00
 00
 00
 00
 00
 00
 00
 00
 00
 00
 00
 00
 00
 00
 00
 00
 00
 00
 00
 00
 00
 00
 00
 00
 00
 00
 00
 00
 00
 00
 00
 00
 00
 00
 00
 00
 00
 00
 00
 00
 00
 00
 00
 00
 00
 00
 00
 00
 00
 00
 00
 00
 63
 6F
 6E
 73
 6F
 6C
 65
 3D
 74
 74
 79
 53
 30
 2C
 31
 31
 35
 32
 30
 30
 6E
 38
 20
 72
 6F
 6F
 74
 3D
 2F
 64
 65
 76
 2F
 72
 61
 6D
 30
 20
 72
 77
 00
 00
 00
 00
 00
 00
 00
 00
 00
 00
 00
 00
 00
 00
 00
 00
 00
 00
 00
 00
 00
 00
 00
 00
 00
 00
 00
 00
 00
 00
 00
 00
 00
 00
 00
 00
 00
 00
 00
 00
 00
 00
 00
 00
 00
 00
 00
 00
 00
 00
 00
 00
 00
 00
 00
 00
 00
 00
 00
 00
 00
 00
 00
 00
 00
 00
 00
 00
 00
 00
 00
 00
 00
 00
 00
 00
 00
 00
 00
 00
 00
 00
 00
 00
 00
 00
 00
 00
 00
 00
 00
 00
 00
 00
 00
 00
 00
 00
 00
 00
 00
 00
 00
 00
 42
 6F
 6F
 74
 20
 73
 74
 65
 70
 2E
 2E
 0A
 0D
 00
 00
 00
 00
 00
 00
 00
 00
 00
 00
 00
 00
 00
 00
 00
 00
 00
 00
 00
 E9
 2D
 FC
 00
 00
 00
 00
 00
 00
 00
 00
 00
 00
 00
 00
 00
 00
 00
 00
 00
 00
 00
 00
 00
 00
 00
 00
 00
 00
 00
 00
 00
 EB
 DE
 90
 90
 90
 90
 90
 90
 90
 90
 90
 90
 90
 90
 90
 90


